[VMEM] WARNING: physical memory size is smaller than virtual memory size.

*** ChampSim Multicore Out-of-Order Simulator ***
Warmup Instructions: 200000000
Simulation Instructions: 500000000
Number of CPUs: 1
Page size: 4096

Off-chip DRAM Size: 16 GiB Channels: 1 Width: 64-bit Data Rate: 3205 MT/s
Heartbeat CPU 0 instructions: 10000004 cycles: 3994264 heartbeat IPC: 2.504 cumulative IPC: 2.504 (Simulation time: 00 hr 00 min 24 sec)
Heartbeat CPU 0 instructions: 20000004 cycles: 7843656 heartbeat IPC: 2.598 cumulative IPC: 2.55 (Simulation time: 00 hr 00 min 48 sec)
Heartbeat CPU 0 instructions: 30000008 cycles: 11695458 heartbeat IPC: 2.596 cumulative IPC: 2.565 (Simulation time: 00 hr 01 min 13 sec)
Heartbeat CPU 0 instructions: 40000008 cycles: 15548820 heartbeat IPC: 2.595 cumulative IPC: 2.573 (Simulation time: 00 hr 01 min 38 sec)
Heartbeat CPU 0 instructions: 50000009 cycles: 19390333 heartbeat IPC: 2.603 cumulative IPC: 2.579 (Simulation time: 00 hr 02 min 02 sec)
Heartbeat CPU 0 instructions: 60000012 cycles: 23249442 heartbeat IPC: 2.591 cumulative IPC: 2.581 (Simulation time: 00 hr 02 min 26 sec)
Heartbeat CPU 0 instructions: 70000014 cycles: 27099677 heartbeat IPC: 2.597 cumulative IPC: 2.583 (Simulation time: 00 hr 02 min 51 sec)
Heartbeat CPU 0 instructions: 80000017 cycles: 32485785 heartbeat IPC: 1.857 cumulative IPC: 2.463 (Simulation time: 00 hr 03 min 22 sec)
Heartbeat CPU 0 instructions: 90000021 cycles: 36235803 heartbeat IPC: 2.667 cumulative IPC: 2.484 (Simulation time: 00 hr 03 min 46 sec)
Heartbeat CPU 0 instructions: 100000025 cycles: 40040456 heartbeat IPC: 2.628 cumulative IPC: 2.497 (Simulation time: 00 hr 04 min 10 sec)
Heartbeat CPU 0 instructions: 110000027 cycles: 43822902 heartbeat IPC: 2.644 cumulative IPC: 2.51 (Simulation time: 00 hr 04 min 35 sec)
Heartbeat CPU 0 instructions: 120000028 cycles: 47620935 heartbeat IPC: 2.633 cumulative IPC: 2.52 (Simulation time: 00 hr 04 min 59 sec)
Heartbeat CPU 0 instructions: 130000030 cycles: 51420231 heartbeat IPC: 2.632 cumulative IPC: 2.528 (Simulation time: 00 hr 05 min 23 sec)
Heartbeat CPU 0 instructions: 140000031 cycles: 55208391 heartbeat IPC: 2.64 cumulative IPC: 2.536 (Simulation time: 00 hr 05 min 47 sec)
Heartbeat CPU 0 instructions: 150000031 cycles: 59002334 heartbeat IPC: 2.636 cumulative IPC: 2.542 (Simulation time: 00 hr 06 min 12 sec)
Heartbeat CPU 0 instructions: 160000031 cycles: 62798530 heartbeat IPC: 2.634 cumulative IPC: 2.548 (Simulation time: 00 hr 06 min 36 sec)
Heartbeat CPU 0 instructions: 170000033 cycles: 66609966 heartbeat IPC: 2.624 cumulative IPC: 2.552 (Simulation time: 00 hr 07 min 00 sec)
Heartbeat CPU 0 instructions: 180000037 cycles: 70413606 heartbeat IPC: 2.629 cumulative IPC: 2.556 (Simulation time: 00 hr 07 min 24 sec)
Heartbeat CPU 0 instructions: 190000040 cycles: 74210241 heartbeat IPC: 2.634 cumulative IPC: 2.56 (Simulation time: 00 hr 07 min 49 sec)
Warmup finished CPU 0 instructions: 200000000 cycles: 77991978 cumulative IPC: 2.564 (Simulation time: 00 hr 08 min 13 sec)
Warmup complete CPU 0 instructions: 200000000 cycles: 77991978 cumulative IPC: 2.564 (Simulation time: 00 hr 08 min 13 sec)
Heartbeat CPU 0 instructions: 200000044 cycles: 77992157 heartbeat IPC: 2.644 cumulative IPC: 0.2458 (Simulation time: 00 hr 08 min 13 sec)
Heartbeat CPU 0 instructions: 210000046 cycles: 192243497 heartbeat IPC: 0.08753 cumulative IPC: 0.08753 (Simulation time: 00 hr 12 min 42 sec)
Heartbeat CPU 0 instructions: 220000050 cycles: 305790314 heartbeat IPC: 0.08807 cumulative IPC: 0.0878 (Simulation time: 00 hr 17 min 09 sec)
Heartbeat CPU 0 instructions: 230000050 cycles: 421743087 heartbeat IPC: 0.08624 cumulative IPC: 0.08727 (Simulation time: 00 hr 21 min 41 sec)
Heartbeat CPU 0 instructions: 240000053 cycles: 536239192 heartbeat IPC: 0.08734 cumulative IPC: 0.08729 (Simulation time: 00 hr 26 min 09 sec)
Heartbeat CPU 0 instructions: 250000053 cycles: 651293679 heartbeat IPC: 0.08692 cumulative IPC: 0.08721 (Simulation time: 00 hr 30 min 39 sec)
Heartbeat CPU 0 instructions: 260000053 cycles: 767755508 heartbeat IPC: 0.08587 cumulative IPC: 0.08699 (Simulation time: 00 hr 35 min 12 sec)
Heartbeat CPU 0 instructions: 270000054 cycles: 888047208 heartbeat IPC: 0.08313 cumulative IPC: 0.08641 (Simulation time: 00 hr 39 min 57 sec)
Heartbeat CPU 0 instructions: 280000054 cycles: 1004644824 heartbeat IPC: 0.08577 cumulative IPC: 0.08633 (Simulation time: 00 hr 44 min 30 sec)
Heartbeat CPU 0 instructions: 290000054 cycles: 1121213923 heartbeat IPC: 0.08579 cumulative IPC: 0.08627 (Simulation time: 00 hr 49 min 03 sec)
Heartbeat CPU 0 instructions: 300000055 cycles: 1237388148 heartbeat IPC: 0.08608 cumulative IPC: 0.08625 (Simulation time: 00 hr 53 min 36 sec)
Heartbeat CPU 0 instructions: 310000055 cycles: 1354370863 heartbeat IPC: 0.08548 cumulative IPC: 0.08618 (Simulation time: 00 hr 58 min 10 sec)
Heartbeat CPU 0 instructions: 320000057 cycles: 1471026538 heartbeat IPC: 0.08572 cumulative IPC: 0.08614 (Simulation time: 01 hr 02 min 43 sec)
Heartbeat CPU 0 instructions: 330000057 cycles: 1586992117 heartbeat IPC: 0.08623 cumulative IPC: 0.08615 (Simulation time: 01 hr 07 min 16 sec)
Heartbeat CPU 0 instructions: 340000059 cycles: 1702495949 heartbeat IPC: 0.08658 cumulative IPC: 0.08618 (Simulation time: 01 hr 11 min 47 sec)
Heartbeat CPU 0 instructions: 350000059 cycles: 1818704289 heartbeat IPC: 0.08605 cumulative IPC: 0.08617 (Simulation time: 01 hr 16 min 20 sec)
Heartbeat CPU 0 instructions: 360000061 cycles: 1934034681 heartbeat IPC: 0.08671 cumulative IPC: 0.0862 (Simulation time: 01 hr 20 min 51 sec)
Heartbeat CPU 0 instructions: 370000062 cycles: 2050817256 heartbeat IPC: 0.08563 cumulative IPC: 0.08617 (Simulation time: 01 hr 25 min 24 sec)
Heartbeat CPU 0 instructions: 380000063 cycles: 2168360809 heartbeat IPC: 0.08507 cumulative IPC: 0.08611 (Simulation time: 01 hr 29 min 58 sec)
Heartbeat CPU 0 instructions: 390000064 cycles: 2285426561 heartbeat IPC: 0.08542 cumulative IPC: 0.08607 (Simulation time: 01 hr 34 min 31 sec)
Heartbeat CPU 0 instructions: 400000065 cycles: 2402799493 heartbeat IPC: 0.0852 cumulative IPC: 0.08603 (Simulation time: 01 hr 39 min 05 sec)
Heartbeat CPU 0 instructions: 410000065 cycles: 2519135844 heartbeat IPC: 0.08596 cumulative IPC: 0.08603 (Simulation time: 01 hr 43 min 37 sec)
Heartbeat CPU 0 instructions: 420000066 cycles: 2633919853 heartbeat IPC: 0.08712 cumulative IPC: 0.08607 (Simulation time: 01 hr 48 min 06 sec)
Heartbeat CPU 0 instructions: 430000066 cycles: 2749650689 heartbeat IPC: 0.08641 cumulative IPC: 0.08609 (Simulation time: 01 hr 52 min 37 sec)
Heartbeat CPU 0 instructions: 440000069 cycles: 2865355444 heartbeat IPC: 0.08643 cumulative IPC: 0.0861 (Simulation time: 01 hr 57 min 08 sec)
Heartbeat CPU 0 instructions: 450000071 cycles: 2982769434 heartbeat IPC: 0.08517 cumulative IPC: 0.08607 (Simulation time: 02 hr 01 min 42 sec)
Heartbeat CPU 0 instructions: 460000071 cycles: 3100206030 heartbeat IPC: 0.08515 cumulative IPC: 0.08603 (Simulation time: 02 hr 06 min 16 sec)
Heartbeat CPU 0 instructions: 470000072 cycles: 3216567997 heartbeat IPC: 0.08594 cumulative IPC: 0.08603 (Simulation time: 02 hr 10 min 49 sec)
Heartbeat CPU 0 instructions: 480000072 cycles: 3332286719 heartbeat IPC: 0.08642 cumulative IPC: 0.08604 (Simulation time: 02 hr 15 min 20 sec)
Heartbeat CPU 0 instructions: 490000073 cycles: 3448937167 heartbeat IPC: 0.08573 cumulative IPC: 0.08603 (Simulation time: 02 hr 19 min 52 sec)
Heartbeat CPU 0 instructions: 500000073 cycles: 3565651981 heartbeat IPC: 0.08568 cumulative IPC: 0.08602 (Simulation time: 02 hr 24 min 25 sec)
Heartbeat CPU 0 instructions: 510000076 cycles: 3682041210 heartbeat IPC: 0.08592 cumulative IPC: 0.08601 (Simulation time: 02 hr 28 min 57 sec)
Heartbeat CPU 0 instructions: 520000077 cycles: 3797846002 heartbeat IPC: 0.08635 cumulative IPC: 0.08602 (Simulation time: 02 hr 33 min 28 sec)
Heartbeat CPU 0 instructions: 530000077 cycles: 3913968938 heartbeat IPC: 0.08612 cumulative IPC: 0.08603 (Simulation time: 02 hr 38 min 00 sec)
Heartbeat CPU 0 instructions: 540000078 cycles: 4027330891 heartbeat IPC: 0.08821 cumulative IPC: 0.08609 (Simulation time: 02 hr 42 min 24 sec)
Heartbeat CPU 0 instructions: 550000079 cycles: 4139604686 heartbeat IPC: 0.08907 cumulative IPC: 0.08617 (Simulation time: 02 hr 46 min 29 sec)
Heartbeat CPU 0 instructions: 560000079 cycles: 4251776641 heartbeat IPC: 0.08915 cumulative IPC: 0.08625 (Simulation time: 02 hr 50 min 33 sec)
Heartbeat CPU 0 instructions: 570000082 cycles: 4365443407 heartbeat IPC: 0.08798 cumulative IPC: 0.0863 (Simulation time: 02 hr 54 min 40 sec)
Heartbeat CPU 0 instructions: 580000083 cycles: 4478539490 heartbeat IPC: 0.08842 cumulative IPC: 0.08635 (Simulation time: 02 hr 58 min 45 sec)
Heartbeat CPU 0 instructions: 590000084 cycles: 4589101147 heartbeat IPC: 0.09045 cumulative IPC: 0.08645 (Simulation time: 03 hr 02 min 46 sec)
Heartbeat CPU 0 instructions: 600000084 cycles: 4702025955 heartbeat IPC: 0.08855 cumulative IPC: 0.0865 (Simulation time: 03 hr 06 min 51 sec)
Heartbeat CPU 0 instructions: 610000084 cycles: 4815344511 heartbeat IPC: 0.08825 cumulative IPC: 0.08655 (Simulation time: 03 hr 10 min 58 sec)
Heartbeat CPU 0 instructions: 620000085 cycles: 4927742707 heartbeat IPC: 0.08897 cumulative IPC: 0.0866 (Simulation time: 03 hr 15 min 03 sec)
Heartbeat CPU 0 instructions: 630000086 cycles: 5039233775 heartbeat IPC: 0.08969 cumulative IPC: 0.08667 (Simulation time: 03 hr 19 min 06 sec)
Heartbeat CPU 0 instructions: 640000088 cycles: 5152839409 heartbeat IPC: 0.08802 cumulative IPC: 0.0867 (Simulation time: 03 hr 23 min 13 sec)
Heartbeat CPU 0 instructions: 650000089 cycles: 5266102881 heartbeat IPC: 0.08829 cumulative IPC: 0.08674 (Simulation time: 03 hr 27 min 19 sec)
Heartbeat CPU 0 instructions: 660000091 cycles: 5377309838 heartbeat IPC: 0.08992 cumulative IPC: 0.0868 (Simulation time: 03 hr 31 min 22 sec)
Heartbeat CPU 0 instructions: 670000091 cycles: 5489056014 heartbeat IPC: 0.08949 cumulative IPC: 0.08686 (Simulation time: 03 hr 35 min 26 sec)
Heartbeat CPU 0 instructions: 680000091 cycles: 5601825359 heartbeat IPC: 0.08868 cumulative IPC: 0.0869 (Simulation time: 03 hr 39 min 31 sec)
Heartbeat CPU 0 instructions: 690000092 cycles: 5716376043 heartbeat IPC: 0.0873 cumulative IPC: 0.0869 (Simulation time: 03 hr 43 min 40 sec)
Simulation finished CPU 0 instructions: 500000003 cycles: 5752214327 cumulative IPC: 0.08692 (Simulation time: 03 hr 47 min 47 sec)
Simulation complete CPU 0 instructions: 500000003 cycles: 5752214327 cumulative IPC: 0.08692 (Simulation time: 03 hr 47 min 47 sec)

ChampSim completed all CPUs

=== Simulation ===
CPU 0 runs /home/ssl32/ChampSim/Traces/429.mcf-192B.champsimtrace.xz

Region of Interest Statistics

CPU 0 cumulative IPC: 0.08692 instructions: 500000003 cycles: 5752214327
CPU 0 Branch Prediction Accuracy: 91.04% MPKI: 21.53 Average ROB Occupancy at Mispredict: 26.85
Branch type MPKI
BRANCH_DIRECT_JUMP: 0.002724
BRANCH_INDIRECT: 0
BRANCH_CONDITIONAL: 21.53
BRANCH_DIRECT_CALL: 0
BRANCH_INDIRECT_CALL: 0
BRANCH_RETURN: 0

cpu0->cpu0_STLB TOTAL        ACCESS:   73668373 HIT:   72392211 MISS:    1276162 MSHR_MERGE:          0
cpu0->cpu0_STLB LOAD         ACCESS:   73668373 HIT:   72392211 MISS:    1276162 MSHR_MERGE:          0
cpu0->cpu0_STLB RFO          ACCESS:          0 HIT:          0 MISS:          0 MSHR_MERGE:          0
cpu0->cpu0_STLB PREFETCH     ACCESS:          0 HIT:          0 MISS:          0 MSHR_MERGE:          0
cpu0->cpu0_STLB WRITE        ACCESS:          0 HIT:          0 MISS:          0 MSHR_MERGE:          0
cpu0->cpu0_STLB TRANSLATION  ACCESS:          0 HIT:          0 MISS:          0 MSHR_MERGE:          0
cpu0->cpu0_STLB PREFETCH REQUESTED:          0 ISSUED:          0 USEFUL:          0 USELESS:          0
cpu0->cpu0_STLB AVERAGE MISS LATENCY: 462.9 cycles
cpu0->cpu0_L2C TOTAL        ACCESS:   75576234 HIT:   20105362 MISS:   55470872 MSHR_MERGE:      76338
cpu0->cpu0_L2C LOAD         ACCESS:   72426419 HIT:   19922763 MISS:   52503656 MSHR_MERGE:        212
cpu0->cpu0_L2C RFO          ACCESS:       1486 HIT:        334 MISS:       1152 MSHR_MERGE:          0
cpu0->cpu0_L2C PREFETCH     ACCESS:     167907 HIT:      59108 MISS:     108799 MSHR_MERGE:      76126
cpu0->cpu0_L2C WRITE        ACCESS:      37281 HIT:      37281 MISS:          0 MSHR_MERGE:          0
cpu0->cpu0_L2C TRANSLATION  ACCESS:    2943141 HIT:      85876 MISS:    2857265 MSHR_MERGE:          0
cpu0->cpu0_L2C PREFETCH REQUESTED:     160926 ISSUED:     137632 USEFUL:       6786 USELESS:       4276
cpu0->cpu0_L2C AVERAGE MISS LATENCY: 153.5 cycles
cpu0->cpu0_L1I TOTAL        ACCESS:     108024 HIT:     108024 MISS:          0 MSHR_MERGE:          0
cpu0->cpu0_L1I LOAD         ACCESS:     108024 HIT:     108024 MISS:          0 MSHR_MERGE:          0
cpu0->cpu0_L1I RFO          ACCESS:          0 HIT:          0 MISS:          0 MSHR_MERGE:          0
cpu0->cpu0_L1I PREFETCH     ACCESS:          0 HIT:          0 MISS:          0 MSHR_MERGE:          0
cpu0->cpu0_L1I WRITE        ACCESS:          0 HIT:          0 MISS:          0 MSHR_MERGE:          0
cpu0->cpu0_L1I TRANSLATION  ACCESS:          0 HIT:          0 MISS:          0 MSHR_MERGE:          0
cpu0->cpu0_L1I PREFETCH REQUESTED:          0 ISSUED:          0 USEFUL:          0 USELESS:          0
cpu0->cpu0_L1I AVERAGE MISS LATENCY: - cycles
cpu0->cpu0_L1D TOTAL        ACCESS:  128797197 HIT:   31790723 MISS:   97006474 MSHR_MERGE:   21603553
cpu0->cpu0_L1D LOAD         ACCESS:  125409622 HIT:   31469040 MISS:   93940582 MSHR_MERGE:   21514164
cpu0->cpu0_L1D RFO          ACCESS:          0 HIT:          0 MISS:          0 MSHR_MERGE:          0
cpu0->cpu0_L1D PREFETCH     ACCESS:     339073 HIT:     220465 MISS:     118608 MSHR_MERGE:      86732
cpu0->cpu0_L1D WRITE        ACCESS:      76498 HIT:      73832 MISS:       2666 MSHR_MERGE:       1180
cpu0->cpu0_L1D TRANSLATION  ACCESS:    2972004 HIT:      27386 MISS:    2944618 MSHR_MERGE:       1477
cpu0->cpu0_L1D PREFETCH REQUESTED:     801356 ISSUED:     339073 USEFUL:      12383 USELESS:      14220
cpu0->cpu0_L1D AVERAGE MISS LATENCY: 121.5 cycles
cpu0->cpu0_ITLB TOTAL        ACCESS:     103962 HIT:     103962 MISS:          0 MSHR_MERGE:          0
cpu0->cpu0_ITLB LOAD         ACCESS:     103962 HIT:     103962 MISS:          0 MSHR_MERGE:          0
cpu0->cpu0_ITLB RFO          ACCESS:          0 HIT:          0 MISS:          0 MSHR_MERGE:          0
cpu0->cpu0_ITLB PREFETCH     ACCESS:          0 HIT:          0 MISS:          0 MSHR_MERGE:          0
cpu0->cpu0_ITLB WRITE        ACCESS:          0 HIT:          0 MISS:          0 MSHR_MERGE:          0
cpu0->cpu0_ITLB TRANSLATION  ACCESS:          0 HIT:          0 MISS:          0 MSHR_MERGE:          0
cpu0->cpu0_ITLB PREFETCH REQUESTED:          0 ISSUED:          0 USEFUL:          0 USELESS:          0
cpu0->cpu0_ITLB AVERAGE MISS LATENCY: - cycles
cpu0->cpu0_DTLB TOTAL        ACCESS:  125477410 HIT:   32411560 MISS:   93065850 MSHR_MERGE:   19397478
cpu0->cpu0_DTLB LOAD         ACCESS:  125477410 HIT:   32411560 MISS:   93065850 MSHR_MERGE:   19397478
cpu0->cpu0_DTLB RFO          ACCESS:          0 HIT:          0 MISS:          0 MSHR_MERGE:          0
cpu0->cpu0_DTLB PREFETCH     ACCESS:          0 HIT:          0 MISS:          0 MSHR_MERGE:          0
cpu0->cpu0_DTLB WRITE        ACCESS:          0 HIT:          0 MISS:          0 MSHR_MERGE:          0
cpu0->cpu0_DTLB TRANSLATION  ACCESS:          0 HIT:          0 MISS:          0 MSHR_MERGE:          0
cpu0->cpu0_DTLB PREFETCH REQUESTED:          0 ISSUED:          0 USEFUL:          0 USELESS:          0
cpu0->cpu0_DTLB AVERAGE MISS LATENCY: 13.04 cycles
cpu0->LLC TOTAL        ACCESS:   55534993 HIT:   16057835 MISS:   39477158 MSHR_MERGE:      54598
cpu0->LLC LOAD         ACCESS:   52503444 HIT:   15211428 MISS:   37292016 MSHR_MERGE:         40
cpu0->LLC RFO          ACCESS:       1152 HIT:        257 MISS:        895 MSHR_MERGE:          0
cpu0->LLC PREFETCH     ACCESS:     137648 HIT:      53626 MISS:      84022 MSHR_MERGE:      54558
cpu0->LLC WRITE        ACCESS:      35484 HIT:      35369 MISS:        115 MSHR_MERGE:          0
cpu0->LLC TRANSLATION  ACCESS:    2857265 HIT:     757155 MISS:    2100110 MSHR_MERGE:          0
cpu0->LLC PREFETCH REQUESTED:     106236 ISSUED:     104975 USEFUL:       3977 USELESS:       2562
cpu0->LLC AVERAGE MISS LATENCY: 193.7 cycles

DRAM Statistics

Channel 0 RQ ROW_BUFFER_HIT:       4373
  ROW_BUFFER_MISS:   39417974
  AVG DBUS CONGESTED CYCLE: 4.274
Channel 0 WQ ROW_BUFFER_HIT:      11727
  ROW_BUFFER_MISS:      20563
  FULL:          0
Channel 0 REFRESHES ISSUED:     479351
